[TITLE]
;;Project Title/Notes
This model has been created by the Urban Water Group at the San Diego State University in 2022.
This research project has been funded by the National Science Foundation, Award# 2113987.
Please use the following citation format for any reports/publications based on this model:
Sangsefidi Y. & Davani H. (2022) "A Stormwater Management Model (SWMM) for Imperial Beach, CA" Computer Software, San Diego State University, San Diego, CA.

[OPTIONS]
;;Option             Value
FLOW_UNITS           CFS
INFILTRATION         GREEN_AMPT
FLOW_ROUTING         DYNWAVE
LINK_OFFSETS         DEPTH
MIN_SLOPE            0
ALLOW_PONDING        YES
SKIP_STEADY_STATE    NO

START_DATE           10/01/1982
START_TIME           00:00:00
REPORT_START_DATE    10/01/1982
REPORT_START_TIME    00:00:00
END_DATE             09/30/1986
END_TIME             23:00:00
SWEEP_START          01/01
SWEEP_END            12/31
DRY_DAYS             0
REPORT_STEP          00:01:00
WET_STEP             00:05:00
DRY_STEP             00:05:00
ROUTING_STEP         0:00:05 

INERTIAL_DAMPING     PARTIAL
NORMAL_FLOW_LIMITED  BOTH
FORCE_MAIN_EQUATION  H-W
VARIABLE_STEP        0.75
LENGTHENING_STEP     0
MIN_SURFAREA         12.557
MAX_TRIALS           8
HEAD_TOLERANCE       0.005
SYS_FLOW_TOL         5
LAT_FLOW_TOL         5
MINIMUM_STEP         0.5
THREADS              8

[EVAPORATION]
;;Data Source    Parameters
;;-------------- ----------------
MONTHLY          0.06   0.08   0.11   0.15   0.17   0.19   0.19   0.18   0.15   0.11   0.08   0.06  
DRY_ONLY         NO

[RAINGAGES]
;;Name           Format    Interval SCF      Source    
;;-------------- --------- ------ ------ ----------
Rain_Gage        VOLUME    1:00     1.0      TIMESERIES Continuous_Rainfall

[SUBCATCHMENTS]
;;Name           Rain Gage        Outlet           Area     %Imperv  Width    %Slope   CurbLen  SnowPack        
;;-------------- ---------------- ---------------- -------- -------- -------- -------- -------- ----------------
A-1-1            Rain_Gage        1025             25.4869  55       524.414  0.802    0                        
A-1-2            Rain_Gage        1026             14.7571  55       309.556  0.733    0                        
A-1-3            Rain_Gage        1029             16.9111  55       378.187  0.756    0                        
A-1-4            Rain_Gage        572              7.9033   55       677.394  0.903    0                        
A2               Rain_Gage        727              5.7777   55       1711.133 0.935    0                        
A2_2             Rain_Gage        726              3.474    55       1548.84  0.952    0                        
A-2-1/A-2-2/A-2-3/A-2-5_1 Rain_Gage        J1               52.0544  55       1192.848 0.989    0                        
A-2-4            Rain_Gage        891              4.9146   55       1893.992 0.916    0                        
A-2-4_1          Rain_Gage        888              5.8613   55       1893.992 0.916    0                        
a-3/a-4          Rain_Gage        980              21.2366  55       1467.532 0.298    0                        
B-1/C-1          Rain_Gage        933              14.7286  55       1285.166 0.944    0                        
B-2              Rain_Gage        KB-J8            12.7669  55       651.913  0.962    0                        
B-3              Rain_Gage        KB-OF3           10.114   55       599.014  0.932    0                        
C-2              Rain_Gage        932              5.2013   55       291.965  1.6      0                        
C-3              Rain_Gage        719              4.3062   55       424.412  2.277    0                        
D-1/D-2          Rain_Gage        716              9.2      70       407.654  0.5      0                        
D-3              Rain_Gage        J2               6.4894   55       767.455  3.133    0                        
E-1A-1/E-1A-2/E-1A-3 Rain_Gage        870              11.8813  55       1573.61  3.445    0                        
E-1A-11          Rain_Gage        592              2.6166   55       193.993  0.251    0                        
E-1A-12          Rain_Gage        591              9.787    55       729.151  2.027    0                        
E-1A-13          Rain_Gage        736              2.6742   55       201.435  2.407    0                        
E-1A-14          Rain_Gage        603              2.2546   55       192.781  2.839    0                        
E-1A-4/E-1A-5    Rain_Gage        734              21.2083  55       437.233  0.791    0                        
E-1A-6           Rain_Gage        735              14.8112  55       459.901  0.93     0                        
E-1A-7           Rain_Gage        593              10.0636  55       491.61   0.871    0                        
E1A-8/9/19       Rain_Gage        949              12.4215  70       752.026  0.77     0                        
E-1B-1/E-1B-2    Rain_Gage        602              21.8016  55       733.762  1.341    0                        
E-1B-3           Rain_Gage        738              15.4601  45       602.296  0.783    0                        
E-1B-4           Rain_Gage        740              11.6199  25       839.912  0.078    0                        
E-1B-5           Rain_Gage        681              3.2396   55       291.601  1.233    0                        
E-2-1/E-2-3      Rain_Gage        746              8.8804   55       519.203  1.053    0                        
E-2-2            Rain_Gage        748              3.3246   55       369.659  1.209    0                        
F-1-1/F-1-2      Rain_Gage        569              14.1202  55       919.564  0.882    0                        
F-1-10           Rain_Gage        551              31.5908  55       980.521  0.632    0                        
F-1-11/F-2-5     Rain_Gage        553              13.1426  55       606.335  0.916    0                        
F-1-12           Rain_Gage        773              9.5406   55       315.035  0.441    0                        
F-1-13           Rain_Gage        619              12.4765  55       461.537  0.742    0                        
F-1-14           Rain_Gage        601              11.5285  50       908.899  1.04     0                        
F-1-15           Rain_Gage        549              33.889   55       934.012  0.506    0                        
F-1-16           Rain_Gage        549              6.0247   55       315.828  0.727    0                        
F-1-17           Rain_Gage        548              6.4156   55       458.033  0.464    0                        
F-1-18           Rain_Gage        688              7.8854   55       518.908  0.746    0                        
F-1-19           Rain_Gage        686              5.6683   55       511.913  0.356    0                        
F-1-20           Rain_Gage        676              19.8352  55       851.681  0.929    0                        
F-1-21_1         Rain_Gage        KB-J24           8.7878   55       732.578  0.813    0                        
F-1-21_2         Rain_Gage        645              4.9666   55       732.578  0.813    0                        
F-1-3            Rain_Gage        784              4.7361   55       273.521  0.642    0                        
F-1-4            Rain_Gage        550              5.7643   55       259.265  0.462    0                        
F-1-5            Rain_Gage        632              7.7249   55       502.268  1.653    0                        
F-1-7            Rain_Gage        780              7.4704   55       675.179  0.529    0                        
F-1-8            Rain_Gage        779              8.1112   55       558.735  2.685    0                        
F-1-9            Rain_Gage        642              4.7195   55       422.265  0.566    0                        
F-2-1/F-2-2      Rain_Gage        938              16.1625  55       730.91   0.999    0                        
F-2-3            Rain_Gage        941              4.4803   55       438.382  0.868    0                        
F-2-4            Rain_Gage        942              4.134    55       237.583  0.718    0                        
F-3-1            Rain_Gage        623              1.6981   55       400.633  4.187    0                        
F-3-2            Rain_Gage        616              8.4309   55       521.997  2.48     0                        
F-3-3            Rain_Gage        614              6.6903   55       411.651  1.804    0                        
F-3-4            Rain_Gage        772              4.9043   70       508.129  1.94     0                        
F-4-1            Rain_Gage        552              8.624    55       474.391  0.572    0                        
F-4-2            Rain_Gage        687              16.0875  55       468.41   0.679    0                        
F-4-3            Rain_Gage        775              1.613    55       284.526  0.628    0                        
F-5-1            Rain_Gage        765              4.48     45       441.255  1.529    0                        
F-5-2            Rain_Gage        763              3.0302   50       320.116  1.301    0                        
F-5-3            Rain_Gage        760              11.6245  50       316.031  0.83     0                        
G-1/G-2/G-3/G-4  Rain_Gage        718              39.4523  55       934.076  0.837    0                        
H-1/H-2          Rain_Gage        617              24.5862  55       682.501  0.812    0                        
H-10             Rain_Gage        828              15.9771  55       556.088  1.238    0                        
H-11/H-12        Rain_Gage        827              15.9422  55       1092.237 1.499    0                        
H-3              Rain_Gage        KB-J185          5.5147   55       986.677  3.415    0                        
H-4              Rain_Gage        846              7.0599   55       503.897  0.921    0                        
H-5              Rain_Gage        607              10.7232  55       1263.806 2.908    0                        
H-6              Rain_Gage        844              20.5648  55       953.769  0.837    0                        
H-7              Rain_Gage        836              9.9769   70       396.013  1.08     0                        
H-8              Rain_Gage        832              24.4109  70       1080.354 2.06     0                        
H-9              Rain_Gage        705              4.7625   55       290.359  0.562    0                        
J-1              Rain_Gage        KB-J10           21.4028  55       808.679  0.218    0                        
J-2              Rain_Gage        KB-J235          13.7256  55       756.565  1.495    0                        
K-1/K-2/K-3/K-4/K-6 Rain_Gage        629              43.5605  55       1845.366 0.868    0                        
K-10             Rain_Gage        670              4.2335   55       438.46   0.348    0                        
K-12/K-11        Rain_Gage        668              32.3964  55       1014.854 0.4      0                        
K-5              Rain_Gage        634              3.5498   55       759.64   1.032    0                        
K-7              Rain_Gage        826              18.3012  55       684.089  0.975    0                        
K-8              Rain_Gage        819              12.8084  55       1064.715 2.217    0                        
K-9              Rain_Gage        698              5.542    55       507.549  1.863    0                        
L-1/L-2          Rain_Gage        646              8.4364   55       486.773  1.545    0                        
M-1/M-2          Rain_Gage        936              12.6121  70       970.328  0.813    0                        
M-3              Rain_Gage        935              5.9592   55       678.587  1.396    0                        
M-4              Rain_Gage        786              7.0104   55       827.087  1.024    0                        
M-5              Rain_Gage        556              3.3429   55       331.871  0.692    0                        
M-6              Rain_Gage        558              13.9655  70       535.572  0.946    0                        
M-7              Rain_Gage        787              5.186    55       199.129  1.095    0                        
N-1/N-2/N-3      Rain_Gage        666              11.4776  55       405.348  1.775    0                        
O-1/O-2          Rain_Gage        924              4.1669   55       305.55   1.883    0                        
O-3              Rain_Gage        663              0.5051   55       230.618  0.714    0                        
O-4              Rain_Gage        907              1.5757   70       195.125  0.96     0                        
P-1/P-2          Rain_Gage        567              35.9121  55       1364.833 3.787    0                        
P-10             Rain_Gage        KB-J73           11.5546  55       954.353  2.502    0                        
P-3              Rain_Gage        803              15.2882  55       1087.393 1.023    0                        
P-4              Rain_Gage        805              9.5529   70       780.699  1.498    0                        
P-5/P-6          Rain_Gage        807              21.7728  55       721.149  1.839    0                        
P-7              Rain_Gage        808              5.6445   55       366.014  3.045    0                        
P-8              Rain_Gage        809              21.3265  55       939.702  2.085    0                        
P-9              Rain_Gage        811              5.4304   80       565.887  0.629    0                        
Q-1/Q-2/Q-4      Rain_Gage        914              8.2779   70       393.385  1.155    0                        
Q-3              Rain_Gage        912              6.2547   70       486.039  1.367    0                        
R-1              Rain_Gage        851              35.7534  55       1052.519 1.2      0                        
R-2              Rain_Gage        577              11.8455  55       341.114  0.716    0                        
R-3              Rain_Gage        797              14.3187  55       511.386  0.71     0                        
S1               Rain_Gage        631              7.4742   55       536.496  2.373    0                        
S-1/S-2          Rain_Gage        583              23.5618  70       1331.633 1.722    0                        
S-3              Rain_Gage        582              8.8831   70       658.174  1.675    0                        
S-4              Rain_Gage        796              17.9783  70       693.312  1.08     0                        
T-1/T-2          Rain_Gage        KB-OF1           30.5808  55       1131.321 0.873    0                        
U-1              Rain_Gage        590              0.7718   55       227.914  1.051    0                        
U-2              Rain_Gage        584              1.2      55       263.821  0.259    0                        
U-3              Rain_Gage        589              5.2445   55       144.064  1.263    0                        
U-4              Rain_Gage        684              1.8259   55       91.162   1.586    0                        
V-1/V-2          Rain_Gage        KB-J15           8.3246   55       942.839  0.515    0                        
W-1              Rain_Gage        586              2.2307   55       236.703  0.955    0                        
X-1              Rain_Gage        J3               11.6512  55       345.814  0.775    0                        
X-2              Rain_Gage        J4               8.3772   55       259.414  0.469    0                        

[SUBAREAS]
;;Subcatchment   N-Imperv   N-Perv     S-Imperv   S-Perv     PctZero    RouteTo    PctRouted 
;;-------------- ---------- ---------- ---------- ---------- ---------- ---------- ----------
A-1-1            0.024      0.2        0.05       0.1        25         OUTLET    
A-1-2            0.024      0.2        0.05       0.1        25         OUTLET    
A-1-3            0.024      0.2        0.05       0.1        25         OUTLET    
A-1-4            0.024      0.2        0.05       0.1        25         OUTLET    
A2               0.024      0.2        0.05       0.1        25         OUTLET    
A2_2             0.024      0.2        0.05       0.1        25         OUTLET    
A-2-1/A-2-2/A-2-3/A-2-5_1 0.024      0.2        0.05       0.1        25         OUTLET    
A-2-4            0.024      0.2        0.05       0.1        25         OUTLET    
A-2-4_1          0.024      0.2        0.05       0.1        25         OUTLET    
a-3/a-4          0.024      0.2        0.05       0.1        25         OUTLET    
B-1/C-1          0.024      0.2        0.05       0.1        25         OUTLET    
B-2              0.024      0.2        0.05       0.1        25         OUTLET    
B-3              0.024      0.2        0.05       0.1        25         OUTLET    
C-2              0.024      0.2        0.05       0.1        25         OUTLET    
C-3              0.024      0.2        0.05       0.1        25         OUTLET    
D-1/D-2          0.024      0.2        0.05       0.1        25         OUTLET    
D-3              0.024      0.2        0.05       0.1        25         OUTLET    
E-1A-1/E-1A-2/E-1A-3 0.024      0.2        0.05       0.1        25         OUTLET    
E-1A-11          0.024      0.2        0.05       0.1        25         OUTLET    
E-1A-12          0.024      0.2        0.05       0.1        25         OUTLET    
E-1A-13          0.024      0.2        0.05       0.1        25         OUTLET    
E-1A-14          0.024      0.2        0.05       0.1        25         OUTLET    
E-1A-4/E-1A-5    0.024      0.2        0.05       0.1        25         OUTLET    
E-1A-6           0.024      0.2        0.05       0.1        25         OUTLET    
E-1A-7           0.024      0.2        0.05       0.1        25         OUTLET    
E1A-8/9/19       0.024      0.2        0.05       0.1        25         OUTLET    
E-1B-1/E-1B-2    0.024      0.2        0.05       0.1        25         OUTLET    
E-1B-3           0.024      0.2        0.05       0.1        25         OUTLET    
E-1B-4           0.024      0.2        0.05       0.1        25         OUTLET    
E-1B-5           0.024      0.2        0.05       0.1        25         OUTLET    
E-2-1/E-2-3      0.024      0.2        0.05       0.1        25         OUTLET    
E-2-2            0.024      0.2        0.05       0.1        25         OUTLET    
F-1-1/F-1-2      0.024      0.2        0.05       0.1        25         OUTLET    
F-1-10           0.024      0.2        0.05       0.1        25         OUTLET    
F-1-11/F-2-5     0.024      0.2        0.05       0.1        25         OUTLET    
F-1-12           0.024      0.2        0.05       0.1        25         OUTLET    
F-1-13           0.024      0.2        0.05       0.1        25         OUTLET    
F-1-14           0.024      0.2        0.05       0.1        25         OUTLET    
F-1-15           0.024      0.2        0.05       0.1        25         OUTLET    
F-1-16           0.024      0.2        0.05       0.1        25         OUTLET    
F-1-17           0.024      0.2        0.05       0.1        25         OUTLET    
F-1-18           0.024      0.2        0.05       0.1        25         OUTLET    
F-1-19           0.024      0.2        0.05       0.1        25         OUTLET    
F-1-20           0.024      0.2        0.05       0.1        25         OUTLET    
F-1-21_1         0.024      0.2        0.05       0.1        25         OUTLET    
F-1-21_2         0.024      0.2        0.05       0.1        25         OUTLET    
F-1-3            0.024      0.2        0.05       0.1        25         OUTLET    
F-1-4            0.024      0.2        0.05       0.1        25         OUTLET    
F-1-5            0.024      0.2        0.05       0.1        25         OUTLET    
F-1-7            0.024      0.2        0.05       0.1        25         OUTLET    
F-1-8            0.024      0.2        0.05       0.1        25         OUTLET    
F-1-9            0.024      0.2        0.05       0.1        25         OUTLET    
F-2-1/F-2-2      0.024      0.2        0.05       0.1        25         OUTLET    
F-2-3            0.024      0.2        0.05       0.1        25         OUTLET    
F-2-4            0.024      0.2        0.05       0.1        25         OUTLET    
F-3-1            0.024      0.2        0.05       0.1        25         OUTLET    
F-3-2            0.024      0.2        0.05       0.1        25         OUTLET    
F-3-3            0.024      0.2        0.05       0.1        25         OUTLET    
F-3-4            0.024      0.2        0.05       0.1        25         OUTLET    
F-4-1            0.024      0.2        0.05       0.1        25         OUTLET    
F-4-2            0.024      0.2        0.05       0.1        25         OUTLET    
F-4-3            0.024      0.2        0.05       0.1        25         OUTLET    
F-5-1            0.024      0.2        0.05       0.1        25         OUTLET    
F-5-2            0.024      0.2        0.05       0.1        25         OUTLET    
F-5-3            0.024      0.2        0.05       0.1        25         OUTLET    
G-1/G-2/G-3/G-4  0.024      0.2        0.05       0.1        25         OUTLET    
H-1/H-2          0.024      0.2        0.05       0.1        25         OUTLET    
H-10             0.024      0.2        0.05       0.1        25         OUTLET    
H-11/H-12        0.024      0.2        0.05       0.1        25         OUTLET    
H-3              0.024      0.2        0.05       0.1        25         OUTLET    
H-4              0.024      0.2        0.05       0.1        25         OUTLET    
H-5              0.024      0.2        0.05       0.1        25         OUTLET    
H-6              0.024      0.2        0.05       0.1        25         OUTLET    
H-7              0.024      0.2        0.05       0.1        25         OUTLET    
H-8              0.024      0.2        0.05       0.1        25         OUTLET    
H-9              0.024      0.2        0.05       0.1        25         OUTLET    
J-1              0.024      0.2        0.05       0.1        25         OUTLET    
J-2              0.024      0.2        0.05       0.1        25         OUTLET    
K-1/K-2/K-3/K-4/K-6 0.024      0.2        0.05       0.1        25         OUTLET    
K-10             0.024      0.2        0.05       0.1        25         OUTLET    
K-12/K-11        0.024      0.2        0.05       0.1        25         OUTLET    
K-5              0.024      0.2        0.05       0.1        25         OUTLET    
K-7              0.024      0.2        0.05       0.1        25         OUTLET    
K-8              0.024      0.2        0.05       0.1        25         OUTLET    
K-9              0.024      0.2        0.05       0.1        25         OUTLET    
L-1/L-2          0.024      0.2        0.05       0.1        25         OUTLET    
M-1/M-2          0.024      0.2        0.05       0.1        25         OUTLET    
M-3              0.024      0.2        0.05       0.1        25         OUTLET    
M-4              0.024      0.2        0.05       0.1        25         OUTLET    
M-5              0.024      0.2        0.05       0.1        25         OUTLET    
M-6              0.024      0.2        0.05       0.1        25         OUTLET    
M-7              0.024      0.2        0.05       0.1        25         OUTLET    
N-1/N-2/N-3      0.024      0.2        0.05       0.1        25         OUTLET    
O-1/O-2          0.024      0.2        0.05       0.1        25         OUTLET    
O-3              0.024      0.2        0.05       0.1        25         OUTLET    
O-4              0.024      0.2        0.05       0.1        25         OUTLET    
P-1/P-2          0.024      0.2        0.05       0.1        25         OUTLET    
P-10             0.024      0.2        0.05       0.1        25         OUTLET    
P-3              0.024      0.2        0.05       0.1        25         OUTLET    
P-4              0.024      0.2        0.05       0.1        25         OUTLET    
P-5/P-6          0.024      0.2        0.05       0.1        25         OUTLET    
P-7              0.024      0.2        0.05       0.1        25         OUTLET    
P-8              0.024      0.2        0.05       0.1        25         OUTLET    
P-9              0.024      0.2        0.05       0.1        25         OUTLET    
Q-1/Q-2/Q-4      0.024      0.2        0.05       0.1        25         OUTLET    
Q-3              0.024      0.2        0.05       0.1        25         OUTLET    
R-1              0.024      0.2        0.05       0.1        25         OUTLET    
R-2              0.024      0.2        0.05       0.1        25         OUTLET    
R-3              0.024      0.2        0.05       0.1        25         OUTLET    
S1               0.024      0.2        0.05       0.1        25         OUTLET    
S-1/S-2          0.024      0.2        0.05       0.1        25         OUTLET    
S-3              0.024      0.2        0.05       0.1        25         OUTLET    
S-4              0.024      0.2        0.05       0.1        25         OUTLET    
T-1/T-2          0.024      0.2        0.05       0.1        25         OUTLET    
U-1              0.024      0.2        0.05       0.1        25         OUTLET    
U-2              0.024      0.2        0.05       0.1        25         OUTLET    
U-3              0.024      0.2        0.05       0.1        25         OUTLET    
U-4              0.024      0.2        0.05       0.1        25         OUTLET    
V-1/V-2          0.024      0.2        0.05       0.1        25         OUTLET    
W-1              0.024      0.2        0.05       0.1        25         OUTLET    
X-1              0.024      0.2        0.05       0.1        25         OUTLET    
X-2              0.024      0.2        0.05       0.1        25         OUTLET    

[INFILTRATION]
;;Subcatchment   Suction    Ksat       IMD       
;;-------------- ---------- ---------- ----------
A-1-1            9          0.02       0.3       
A-1-2            9          0.02       0.3       
A-1-3            9          0.02       0.3       
A-1-4            3          0.15       0.32      
A2               4.565      0.116      0.315     
A2_2             5.954      0.086      0.31      
A-2-1/A-2-2/A-2-3/A-2-5_1 9          0.02       0.3       
A-2-4            3          0.15       0.32      
A-2-4_1          3          0.15       0.32      
a-3/a-4          3          0.15       0.32      
B-1/C-1          9          0.02       0.3       
B-2              9          0.02       0.3       
B-3              9          0.02       0.3       
C-2              9          0.02       0.3       
C-3              9          0.02       0.3       
D-1/D-2          9          0.02       0.3       
D-3              9          0.02       0.3       
E-1A-1/E-1A-2/E-1A-3 9          0.02       0.3       
E-1A-11          9          0.02       0.3       
E-1A-12          9          0.02       0.3       
E-1A-13          9          0.02       0.3       
E-1A-14          9          0.02       0.3       
E-1A-4/E-1A-5    9          0.02       0.3       
E-1A-6           9          0.02       0.3       
E-1A-7           9          0.02       0.3       
E1A-8/9/19       9          0.02       0.3       
E-1B-1/E-1B-2    9          0.02       0.3       
E-1B-3           9          0.02       0.3       
E-1B-4           9          0.02       0.3       
E-1B-5           9          0.02       0.3       
E-2-1/E-2-3      9          0.02       0.3       
E-2-2            9          0.02       0.3       
F-1-1/F-1-2      9          0.02       0.3       
F-1-10           9          0.02       0.3       
F-1-11/F-2-5     9          0.02       0.3       
F-1-12           9          0.02       0.3       
F-1-13           9          0.02       0.3       
F-1-14           9          0.02       0.3       
F-1-15           9          0.02       0.3       
F-1-16           9          0.02       0.3       
F-1-17           9          0.02       0.3       
F-1-18           9          0.02       0.3       
F-1-19           9          0.02       0.3       
F-1-20           9          0.02       0.3       
F-1-21_1         9          0.02       0.3       
F-1-21_2         9          0.02       0.3       
F-1-3            9          0.02       0.3       
F-1-4            9          0.02       0.3       
F-1-5            9          0.02       0.3       
F-1-7            9          0.02       0.3       
F-1-8            9          0.02       0.3       
F-1-9            9          0.02       0.3       
F-2-1/F-2-2      9          0.02       0.3       
F-2-3            9          0.02       0.3       
F-2-4            9          0.02       0.3       
F-3-1            9          0.02       0.3       
F-3-2            9          0.02       0.3       
F-3-3            9          0.02       0.3       
F-3-4            9          0.02       0.3       
F-4-1            9          0.02       0.3       
F-4-2            9          0.02       0.3       
F-4-3            9          0.02       0.3       
F-5-1            9          0.02       0.3       
F-5-2            9          0.02       0.3       
F-5-3            9          0.02       0.3       
G-1/G-2/G-3/G-4  9          0.02       0.3       